data_DBP-1
_audit_creation_date              2018-12-18
_audit_creation_method            'Materials Studio'
_symmetry_space_group_name_H-M    'P1'
_symmetry_Int_Tables_number       1
_symmetry_cell_setting            triclinic
loop_
_symmetry_equiv_pos_as_xyz
  x,y,z
_cell_length_a                    15.0000
_cell_length_b                    15.0000
_cell_length_c                    15.0000
_cell_angle_alpha                 90.0000
_cell_angle_beta                  90.0000
_cell_angle_gamma                 90.0000
loop_
_atom_site_label
_atom_site_type_symbol
_atom_site_fract_x
_atom_site_fract_y
_atom_site_fract_z
_atom_site_U_iso_or_equiv
_atom_site_adp_type
_atom_site_occupancy
C1     C     0.42326  -0.82085  -0.49684   0.00000  Uiso   1.00
C2     C     0.35355  -0.80441  -0.43733   0.00000  Uiso   1.00
C3     C     0.32455  -0.71715  -0.42292   0.00000  Uiso   1.00
C4     C     0.36500  -0.64535  -0.46717   0.00000  Uiso   1.00
C5     C     0.43706  -0.66188  -0.52542   0.00000  Uiso   1.00
C6     C     0.46444  -0.74981  -0.54071   0.00000  Uiso   1.00
H7     H     0.44578  -0.88903  -0.50913   0.00000  Uiso   1.00
H8     H     0.32107  -0.85962  -0.40262   0.00000  Uiso   1.00
H9     H     0.51919  -0.76167  -0.58719   0.00000  Uiso   1.00
C10    C     0.32608  -0.55370  -0.45874   0.00000  Uiso   1.00
O11    O     0.32868  -0.49769  -0.51661   0.00000  Uiso   1.00
C12    C     0.48877  -0.58988  -0.57227   0.00000  Uiso   1.00
O13    O     0.50957  -0.59346  -0.64996   0.00000  Uiso   1.00
H14    H     0.26901  -0.70378  -0.37795   0.00000  Uiso   1.00
O15    O     0.28457  -0.54207  -0.37997   0.00000  Uiso   1.00
O16    O     0.51396  -0.52504  -0.51607   0.00000  Uiso   1.00
C17    C     0.24063  -0.45815  -0.36509   0.00000  Uiso   1.00
C18    C     0.30402  -0.38883  -0.32642   0.00000  Uiso   1.00
H19    H     0.18639  -0.47331  -0.31808   0.00000  Uiso   1.00
H20    H     0.21175  -0.43465  -0.42830   0.00000  Uiso   1.00
C21    C     0.25701  -0.30089  -0.30433   0.00000  Uiso   1.00
H22    H     0.33541  -0.41656  -0.26588   0.00000  Uiso   1.00
H23    H     0.35803  -0.37672  -0.37481   0.00000  Uiso   1.00
C24    C     0.31969  -0.23055  -0.26536   0.00000  Uiso   1.00
H25    H     0.22520  -0.27435  -0.36524   0.00000  Uiso   1.00
H26    H     0.20207  -0.31373  -0.25692   0.00000  Uiso   1.00
H27    H     0.28404  -0.16813  -0.25039   0.00000  Uiso   1.00
H28    H     0.35067  -0.25400  -0.20295   0.00000  Uiso   1.00
H29    H     0.37403  -0.21444  -0.31217   0.00000  Uiso   1.00
C30    C     0.55909  -0.44923  -0.55352   0.00000  Uiso   1.00
C31    C     0.65964  -0.46312  -0.55767   0.00000  Uiso   1.00
H32    H     0.54198  -0.39337  -0.50916   0.00000  Uiso   1.00
H33    H     0.53174  -0.43578  -0.62023   0.00000  Uiso   1.00
C34    C     0.70920  -0.38024  -0.59092   0.00000  Uiso   1.00
H35    H     0.68385  -0.48172  -0.49067   0.00000  Uiso   1.00
H36    H     0.67375  -0.51997  -0.60210   0.00000  Uiso   1.00
C37    C     0.81025  -0.39302  -0.59560   0.00000  Uiso   1.00
H38    H     0.68372  -0.36179  -0.65753   0.00000  Uiso   1.00
H39    H     0.69369  -0.32315  -0.54697   0.00000  Uiso   1.00
H40    H     0.84393  -0.33247  -0.61993   0.00000  Uiso   1.00
H41    H     0.83824  -0.40901  -0.52952   0.00000  Uiso   1.00
H42    H     0.82804  -0.44810  -0.64091   0.00000  Uiso   1.00
loop_
_geom_bond_atom_site_label_1
_geom_bond_atom_site_label_2
_geom_bond_distance
_geom_bond_site_symmetry_2
_ccdc_geom_bond_type
C1     C2      1.397   .     D
C1     C6      1.396   .     S
C1     H7      1.093   .     S
C2     C3      1.396   .     S
C2     H8      1.093   .     S
C3     C4      1.403   .     D
C3     H14     1.091   .     S
C4     C5      1.412   .     S
C4     C10     1.499   .     S
C5     C6      1.400   .     D
C5     C12     1.504   .     S
C6     H9      1.092   .     S
C10    O11     1.209   .     D
C10    O15     1.347   .     S
C12    O13     1.208   .     D
C12    O16     1.341   .     S
O15    C17     1.438   .     S
O16    C30     1.438   .     S
C17    C18     1.524   .     S
C17    H19     1.100   .     S
C17    H20     1.100   .     S
C18    C21     1.532   .     S
C18    H22     1.104   .     S
C18    H23     1.103   .     S
C21    C24     1.529   .     S
C21    H25     1.105   .     S
C21    H26     1.105   .     S
C24    H27     1.101   .     S
C24    H28     1.103   .     S
C24    H29     1.103   .     S
C30    C31     1.524   .     S
C30    H32     1.100   .     S
C30    H33     1.100   .     S
C31    C34     1.532   .     S
C31    H35     1.104   .     S
C31    H36     1.103   .     S
C34    C37     1.529   .     S
C34    H38     1.105   .     S
C34    H39     1.106   .     S
C37    H40     1.102   .     S
C37    H41     1.103   .     S
C37    H42     1.103   .     S
