data_DBP-1
_audit_creation_date              2018-12-18
_audit_creation_method            'Materials Studio'
_symmetry_space_group_name_H-M    'P1'
_symmetry_Int_Tables_number       1
_symmetry_cell_setting            triclinic
loop_
_symmetry_equiv_pos_as_xyz
  x,y,z
_cell_length_a                    15.0000
_cell_length_b                    15.0000
_cell_length_c                    15.0000
_cell_angle_alpha                 90.0000
_cell_angle_beta                  90.0000
_cell_angle_gamma                 90.0000
loop_
_atom_site_label
_atom_site_type_symbol
_atom_site_fract_x
_atom_site_fract_y
_atom_site_fract_z
_atom_site_U_iso_or_equiv
_atom_site_adp_type
_atom_site_occupancy
C1     C     0.48846  -0.16128  -0.50012   0.00000  Uiso   1.00
C2     C     0.39632  -0.16915  -0.51106   0.00000  Uiso   1.00
C3     C     0.35340  -0.24815  -0.48699   0.00000  Uiso   1.00
C4     C     0.40181  -0.32028  -0.45230   0.00000  Uiso   1.00
C5     C     0.49525  -0.31306  -0.44360   0.00000  Uiso   1.00
C6     C     0.53738  -0.23291  -0.46630   0.00000  Uiso   1.00
H7     H     0.52244  -0.09937  -0.51800   0.00000  Uiso   1.00
H8     H     0.35758  -0.11346  -0.53762   0.00000  Uiso   1.00
H9     H     0.60947  -0.22777  -0.45766   0.00000  Uiso   1.00
C10    C     0.35324  -0.40026  -0.41724   0.00000  Uiso   1.00
O11    O     0.37929  -0.44624  -0.35642   0.00000  Uiso   1.00
C12    C     0.55444  -0.38768  -0.41228   0.00000  Uiso   1.00
O13    O     0.61380  -0.37788  -0.35878   0.00000  Uiso   1.00
H14    H     0.28126  -0.25433  -0.49361   0.00000  Uiso   1.00
O15    O     0.27498  -0.41303  -0.45938   0.00000  Uiso   1.00
O16    O     0.53728  -0.46412  -0.45539   0.00000  Uiso   1.00
C17    C     0.21974  -0.48534  -0.42913   0.00000  Uiso   1.00
C18    C     0.24331  -0.57262  -0.47546   0.00000  Uiso   1.00
H19    H     0.15118  -0.46472  -0.44520   0.00000  Uiso   1.00
H20    H     0.22643  -0.49183  -0.35637   0.00000  Uiso   1.00
C21    C     0.18114  -0.64910  -0.44869   0.00000  Uiso   1.00
H22    H     0.24068  -0.56227  -0.54829   0.00000  Uiso   1.00
H23    H     0.31279  -0.59005  -0.45889   0.00000  Uiso   1.00
C24    C     0.20384  -0.73724  -0.49465   0.00000  Uiso   1.00
H25    H     0.18378  -0.65816  -0.37563   0.00000  Uiso   1.00
H26    H     0.11150  -0.63060  -0.46416   0.00000  Uiso   1.00
H27    H     0.15818  -0.79088  -0.47393   0.00000  Uiso   1.00
H28    H     0.19932  -0.73117  -0.56778   0.00000  Uiso   1.00
H29    H     0.27224  -0.75881  -0.47857   0.00000  Uiso   1.00
C30    C     0.58548  -0.54221  -0.42768   0.00000  Uiso   1.00
C31    C     0.67347  -0.55218  -0.47746   0.00000  Uiso   1.00
H32    H     0.54042  -0.59824  -0.44224   0.00000  Uiso   1.00
H33    H     0.59658  -0.53890  -0.35526   0.00000  Uiso   1.00
C34    C     0.72223  -0.63872  -0.45368   0.00000  Uiso   1.00
H35    H     0.66023  -0.54984  -0.54985   0.00000  Uiso   1.00
H36    H     0.71618  -0.49447  -0.46160   0.00000  Uiso   1.00
C37    C     0.81078  -0.64980  -0.50299   0.00000  Uiso   1.00
H38    H     0.73422  -0.64067  -0.38103   0.00000  Uiso   1.00
H39    H     0.67858  -0.69626  -0.46839   0.00000  Uiso   1.00
H40    H     0.84431  -0.71242  -0.48434   0.00000  Uiso   1.00
H41    H     0.80087  -0.65072  -0.57584   0.00000  Uiso   1.00
H42    H     0.85681  -0.59454  -0.48778   0.00000  Uiso   1.00
loop_
_geom_bond_atom_site_label_1
_geom_bond_atom_site_label_2
_geom_bond_distance
_geom_bond_site_symmetry_2
_ccdc_geom_bond_type
C1     C2      1.397   .     D
C1     C6      1.396   .     S
C1     H7      1.093   .     S
C2     C3      1.396   .     S
C2     H8      1.093   .     S
C3     C4      1.403   .     D
C3     H14     1.091   .     S
C4     C5      1.412   .     S
C4     C10     1.499   .     S
C5     C6      1.400   .     D
C5     C12     1.504   .     S
C6     H9      1.092   .     S
C10    O11     1.209   .     D
C10    O15     1.347   .     S
C12    O13     1.208   .     D
C12    O16     1.341   .     S
O15    C17     1.438   .     S
O16    C30     1.438   .     S
C17    C18     1.524   .     S
C17    H19     1.100   .     S
C17    H20     1.100   .     S
C18    C21     1.532   .     S
C18    H22     1.104   .     S
C18    H23     1.103   .     S
C21    C24     1.529   .     S
C21    H25     1.105   .     S
C21    H26     1.105   .     S
C24    H27     1.101   .     S
C24    H28     1.103   .     S
C24    H29     1.103   .     S
C30    C31     1.524   .     S
C30    H32     1.100   .     S
C30    H33     1.100   .     S
C31    C34     1.532   .     S
C31    H35     1.104   .     S
C31    H36     1.103   .     S
C34    C37     1.529   .     S
C34    H38     1.105   .     S
C34    H39     1.106   .     S
C37    H40     1.102   .     S
C37    H41     1.103   .     S
C37    H42     1.103   .     S
