data_DBP-1
_audit_creation_date              2018-12-18
_audit_creation_method            'Materials Studio'
_symmetry_space_group_name_H-M    'P1'
_symmetry_Int_Tables_number       1
_symmetry_cell_setting            triclinic
loop_
_symmetry_equiv_pos_as_xyz
  x,y,z
_cell_length_a                    15.0000
_cell_length_b                    15.0000
_cell_length_c                    15.0000
_cell_angle_alpha                 90.0000
_cell_angle_beta                  90.0000
_cell_angle_gamma                 90.0000
loop_
_atom_site_label
_atom_site_type_symbol
_atom_site_fract_x
_atom_site_fract_y
_atom_site_fract_z
_atom_site_U_iso_or_equiv
_atom_site_adp_type
_atom_site_occupancy
C1     C     0.29484  -0.62037  -0.72468   0.00000  Uiso   1.00
C2     C     0.24552  -0.54225  -0.71302   0.00000  Uiso   1.00
C3     C     0.27820  -0.47461  -0.65807   0.00000  Uiso   1.00
C4     C     0.36001  -0.48428  -0.61375   0.00000  Uiso   1.00
C5     C     0.40856  -0.56430  -0.62369   0.00000  Uiso   1.00
C6     C     0.37601  -0.63097  -0.68034   0.00000  Uiso   1.00
H7     H     0.27013  -0.67328  -0.76825   0.00000  Uiso   1.00
H8     H     0.18187  -0.53350  -0.74736   0.00000  Uiso   1.00
H9     H     0.41511  -0.69180  -0.68864   0.00000  Uiso   1.00
C10    C     0.39865  -0.40693  -0.56366   0.00000  Uiso   1.00
O11    O     0.47758  -0.39295  -0.55540   0.00000  Uiso   1.00
C12    C     0.49417  -0.58414  -0.57542   0.00000  Uiso   1.00
O13    O     0.55874  -0.61657  -0.61093   0.00000  Uiso   1.00
H14    H     0.24106  -0.41264  -0.64993   0.00000  Uiso   1.00
O15    O     0.33480  -0.35253  -0.53162   0.00000  Uiso   1.00
O16    O     0.48767  -0.56734  -0.48783   0.00000  Uiso   1.00
C17    C     0.36316  -0.27328  -0.48568   0.00000  Uiso   1.00
C18    C     0.37882  -0.29067  -0.38683   0.00000  Uiso   1.00
H19    H     0.30867  -0.22518  -0.49561   0.00000  Uiso   1.00
H20    H     0.42401  -0.24755  -0.51756   0.00000  Uiso   1.00
C21    C     0.40308  -0.20573  -0.33557   0.00000  Uiso   1.00
H22    H     0.31816  -0.32097  -0.35818   0.00000  Uiso   1.00
H23    H     0.43272  -0.34019  -0.37988   0.00000  Uiso   1.00
C24    C     0.41897  -0.22198  -0.23618   0.00000  Uiso   1.00
H25    H     0.46334  -0.17567  -0.36544   0.00000  Uiso   1.00
H26    H     0.34946  -0.15588  -0.34400   0.00000  Uiso   1.00
H27    H     0.43646  -0.15981  -0.20124   0.00000  Uiso   1.00
H28    H     0.35910  -0.24966  -0.20373   0.00000  Uiso   1.00
H29    H     0.47384  -0.26971  -0.22544   0.00000  Uiso   1.00
C30    C     0.56679  -0.57816  -0.43481   0.00000  Uiso   1.00
C31    C     0.57644  -0.67308  -0.39993   0.00000  Uiso   1.00
H32    H     0.55912  -0.53042  -0.37965   0.00000  Uiso   1.00
H33    H     0.62513  -0.55893  -0.47488   0.00000  Uiso   1.00
C34    C     0.65666  -0.68386  -0.33764   0.00000  Uiso   1.00
H35    H     0.51456  -0.69187  -0.36473   0.00000  Uiso   1.00
H36    H     0.58320  -0.71866  -0.45722   0.00000  Uiso   1.00
C37    C     0.66743  -0.77879  -0.30204   0.00000  Uiso   1.00
H38    H     0.71796  -0.66396  -0.37331   0.00000  Uiso   1.00
H39    H     0.65023  -0.63701  -0.28109   0.00000  Uiso   1.00
H40    H     0.72572  -0.78445  -0.25772   0.00000  Uiso   1.00
H41    H     0.60828  -0.79985  -0.26378   0.00000  Uiso   1.00
H42    H     0.67641  -0.82692  -0.35687   0.00000  Uiso   1.00
loop_
_geom_bond_atom_site_label_1
_geom_bond_atom_site_label_2
_geom_bond_distance
_geom_bond_site_symmetry_2
_ccdc_geom_bond_type
C1     C2      1.397   .     D
C1     C6      1.396   .     S
C1     H7      1.093   .     S
C2     C3      1.396   .     S
C2     H8      1.093   .     S
C3     C4      1.403   .     D
C3     H14     1.091   .     S
C4     C5      1.412   .     S
C4     C10     1.499   .     S
C5     C6      1.400   .     D
C5     C12     1.504   .     S
C6     H9      1.092   .     S
C10    O11     1.209   .     D
C10    O15     1.347   .     S
C12    O13     1.208   .     D
C12    O16     1.341   .     S
O15    C17     1.438   .     S
O16    C30     1.438   .     S
C17    C18     1.524   .     S
C17    H19     1.100   .     S
C17    H20     1.100   .     S
C18    C21     1.532   .     S
C18    H22     1.104   .     S
C18    H23     1.103   .     S
C21    C24     1.529   .     S
C21    H25     1.105   .     S
C21    H26     1.105   .     S
C24    H27     1.101   .     S
C24    H28     1.103   .     S
C24    H29     1.103   .     S
C30    C31     1.524   .     S
C30    H32     1.100   .     S
C30    H33     1.100   .     S
C31    C34     1.532   .     S
C31    H35     1.104   .     S
C31    H36     1.103   .     S
C34    C37     1.529   .     S
C34    H38     1.105   .     S
C34    H39     1.106   .     S
C37    H40     1.102   .     S
C37    H41     1.103   .     S
C37    H42     1.103   .     S
