data_DBP-1
_audit_creation_date              2018-12-18
_audit_creation_method            'Materials Studio'
_symmetry_space_group_name_H-M    'P1'
_symmetry_Int_Tables_number       1
_symmetry_cell_setting            triclinic
loop_
_symmetry_equiv_pos_as_xyz
  x,y,z
_cell_length_a                    15.0000
_cell_length_b                    15.0000
_cell_length_c                    15.0000
_cell_angle_alpha                 90.0000
_cell_angle_beta                  90.0000
_cell_angle_gamma                 90.0000
loop_
_atom_site_label
_atom_site_type_symbol
_atom_site_fract_x
_atom_site_fract_y
_atom_site_fract_z
_atom_site_U_iso_or_equiv
_atom_site_adp_type
_atom_site_occupancy
C1     C     0.29122  -0.28593  -0.25577   0.00000  Uiso   1.00
C2     C     0.22413  -0.34823  -0.27276   0.00000  Uiso   1.00
C3     C     0.24541  -0.42940  -0.31302   0.00000  Uiso   1.00
C4     C     0.33357  -0.44914  -0.33727   0.00000  Uiso   1.00
C5     C     0.40088  -0.38508  -0.32228   0.00000  Uiso   1.00
C6     C     0.37907  -0.30462  -0.28027   0.00000  Uiso   1.00
H7     H     0.27525  -0.22259  -0.22350   0.00000  Uiso   1.00
H8     H     0.15520  -0.33406  -0.25393   0.00000  Uiso   1.00
H9     H     0.43213  -0.25641  -0.26763   0.00000  Uiso   1.00
C10    C     0.35649  -0.54050  -0.37067   0.00000  Uiso   1.00
O11    O     0.42748  -0.57675  -0.35887   0.00000  Uiso   1.00
C12    C     0.49645  -0.39676  -0.35024   0.00000  Uiso   1.00
O13    O     0.55911  -0.37868  -0.30303   0.00000  Uiso   1.00
H14    H     0.19381  -0.47921  -0.32495   0.00000  Uiso   1.00
O15    O     0.28717  -0.57915  -0.41266   0.00000  Uiso   1.00
O16    O     0.50323  -0.42347  -0.43531   0.00000  Uiso   1.00
C17    C     0.29909  -0.66887  -0.44433   0.00000  Uiso   1.00
C18    C     0.33911  -0.67081  -0.53768   0.00000  Uiso   1.00
H19    H     0.23181  -0.69813  -0.44395   0.00000  Uiso   1.00
H20    H     0.34150  -0.70557  -0.39704   0.00000  Uiso   1.00
C21    C     0.34658  -0.76558  -0.57504   0.00000  Uiso   1.00
H22    H     0.29759  -0.62936  -0.58215   0.00000  Uiso   1.00
H23    H     0.40565  -0.63962  -0.53543   0.00000  Uiso   1.00
C24    C     0.38658  -0.76874  -0.66877   0.00000  Uiso   1.00
H25    H     0.38754  -0.80651  -0.52951   0.00000  Uiso   1.00
H26    H     0.27989  -0.79694  -0.57577   0.00000  Uiso   1.00
H27    H     0.39127  -0.83766  -0.69367   0.00000  Uiso   1.00
H28    H     0.34578  -0.73054  -0.71653   0.00000  Uiso   1.00
H29    H     0.45426  -0.74006  -0.66982   0.00000  Uiso   1.00
C30    C     0.59101  -0.44261  -0.46872   0.00000  Uiso   1.00
C31    C     0.63572  -0.36005  -0.50750   0.00000  Uiso   1.00
H32    H     0.58074  -0.49376  -0.52029   0.00000  Uiso   1.00
H33    H     0.63137  -0.47126  -0.41459   0.00000  Uiso   1.00
C34    C     0.72641  -0.38087  -0.54962   0.00000  Uiso   1.00
H35    H     0.59094  -0.33014  -0.55772   0.00000  Uiso   1.00
H36    H     0.64405  -0.31040  -0.45393   0.00000  Uiso   1.00
C37    C     0.77231  -0.29871  -0.58884   0.00000  Uiso   1.00
H38    H     0.77022  -0.41161  -0.49901   0.00000  Uiso   1.00
H39    H     0.71785  -0.43170  -0.60231   0.00000  Uiso   1.00
H40    H     0.83736  -0.31576  -0.61836   0.00000  Uiso   1.00
H41    H     0.73138  -0.26784  -0.64154   0.00000  Uiso   1.00
H42    H     0.78398  -0.24760  -0.53732   0.00000  Uiso   1.00
loop_
_geom_bond_atom_site_label_1
_geom_bond_atom_site_label_2
_geom_bond_distance
_geom_bond_site_symmetry_2
_ccdc_geom_bond_type
C1     C2      1.397   .     D
C1     C6      1.396   .     S
C1     H7      1.093   .     S
C2     C3      1.396   .     S
C2     H8      1.093   .     S
C3     C4      1.403   .     D
C3     H14     1.091   .     S
C4     C5      1.412   .     S
C4     C10     1.499   .     S
C5     C6      1.400   .     D
C5     C12     1.504   .     S
C6     H9      1.092   .     S
C10    O11     1.209   .     D
C10    O15     1.347   .     S
C12    O13     1.208   .     D
C12    O16     1.341   .     S
O15    C17     1.438   .     S
O16    C30     1.438   .     S
C17    C18     1.524   .     S
C17    H19     1.100   .     S
C17    H20     1.100   .     S
C18    C21     1.532   .     S
C18    H22     1.104   .     S
C18    H23     1.103   .     S
C21    C24     1.529   .     S
C21    H25     1.105   .     S
C21    H26     1.105   .     S
C24    H27     1.101   .     S
C24    H28     1.103   .     S
C24    H29     1.103   .     S
C30    C31     1.524   .     S
C30    H32     1.100   .     S
C30    H33     1.100   .     S
C31    C34     1.532   .     S
C31    H35     1.104   .     S
C31    H36     1.103   .     S
C34    C37     1.529   .     S
C34    H38     1.105   .     S
C34    H39     1.106   .     S
C37    H40     1.102   .     S
C37    H41     1.103   .     S
C37    H42     1.103   .     S
