data_DBP-1
_audit_creation_date              2018-12-18
_audit_creation_method            'Materials Studio'
_symmetry_space_group_name_H-M    'P1'
_symmetry_Int_Tables_number       1
_symmetry_cell_setting            triclinic
loop_
_symmetry_equiv_pos_as_xyz
  x,y,z
_cell_length_a                    15.0000
_cell_length_b                    15.0000
_cell_length_c                    15.0000
_cell_angle_alpha                 90.0000
_cell_angle_beta                  90.0000
_cell_angle_gamma                 90.0000
loop_
_atom_site_label
_atom_site_type_symbol
_atom_site_fract_x
_atom_site_fract_y
_atom_site_fract_z
_atom_site_U_iso_or_equiv
_atom_site_adp_type
_atom_site_occupancy
C1     C     0.47424  -0.75636  -0.26172   0.00000  Uiso   1.00
C2     C     0.41555  -0.78929  -0.32608   0.00000  Uiso   1.00
C3     C     0.40505  -0.74399  -0.40670   0.00000  Uiso   1.00
C4     C     0.45244  -0.66519  -0.42384   0.00000  Uiso   1.00
C5     C     0.50986  -0.63070  -0.35772   0.00000  Uiso   1.00
C6     C     0.52121  -0.67761  -0.27782   0.00000  Uiso   1.00
H7     H     0.48347  -0.79189  -0.19879   0.00000  Uiso   1.00
H8     H     0.37843  -0.85079  -0.31393   0.00000  Uiso   1.00
H9     H     0.56710  -0.65097  -0.22799   0.00000  Uiso   1.00
C10    C     0.44812  -0.62353  -0.51457   0.00000  Uiso   1.00
O11    O     0.50842  -0.58233  -0.54862   0.00000  Uiso   1.00
C12    C     0.55985  -0.54423  -0.36660   0.00000  Uiso   1.00
O13    O     0.63730  -0.53539  -0.34648   0.00000  Uiso   1.00
H14    H     0.36074  -0.77010  -0.45809   0.00000  Uiso   1.00
O15    O     0.36996  -0.64036  -0.55545   0.00000  Uiso   1.00
O16    O     0.50658  -0.47758  -0.39338   0.00000  Uiso   1.00
C17    C     0.35885  -0.60758  -0.64488   0.00000  Uiso   1.00
C18    C     0.32327  -0.51243  -0.64592   0.00000  Uiso   1.00
H19    H     0.31122  -0.65380  -0.67615   0.00000  Uiso   1.00
H20    H     0.42305  -0.61177  -0.68011   0.00000  Uiso   1.00
C21    C     0.30513  -0.47852  -0.74054   0.00000  Uiso   1.00
H22    H     0.26155  -0.50976  -0.60589   0.00000  Uiso   1.00
H23    H     0.37213  -0.46866  -0.61272   0.00000  Uiso   1.00
C24    C     0.26932  -0.38309  -0.74280   0.00000  Uiso   1.00
H25    H     0.36718  -0.48237  -0.78006   0.00000  Uiso   1.00
H26    H     0.25722  -0.52350  -0.77390   0.00000  Uiso   1.00
H27    H     0.25715  -0.36058  -0.81163   0.00000  Uiso   1.00
H28    H     0.20591  -0.37748  -0.70601   0.00000  Uiso   1.00
H29    H     0.31678  -0.33610  -0.71209   0.00000  Uiso   1.00
C30    C     0.54736  -0.39244  -0.40997   0.00000  Uiso   1.00
C31    C     0.55084  -0.33504  -0.32623   0.00000  Uiso   1.00
H32    H     0.50553  -0.36131  -0.46158   0.00000  Uiso   1.00
H33    H     0.61461  -0.40313  -0.43721   0.00000  Uiso   1.00
C34    C     0.58773  -0.24155  -0.34443   0.00000  Uiso   1.00
H35    H     0.48307  -0.33025  -0.29785   0.00000  Uiso   1.00
H36    H     0.59269  -0.36892  -0.27617   0.00000  Uiso   1.00
C37    C     0.59179  -0.18301  -0.26106   0.00000  Uiso   1.00
H38    H     0.65510  -0.24729  -0.37366   0.00000  Uiso   1.00
H39    H     0.54636  -0.20845  -0.39568   0.00000  Uiso   1.00
H40    H     0.61878  -0.11642  -0.27623   0.00000  Uiso   1.00
H41    H     0.52506  -0.17378  -0.23161   0.00000  Uiso   1.00
H42    H     0.63460  -0.21313  -0.20944   0.00000  Uiso   1.00
loop_
_geom_bond_atom_site_label_1
_geom_bond_atom_site_label_2
_geom_bond_distance
_geom_bond_site_symmetry_2
_ccdc_geom_bond_type
C1     C2      1.397   .     D
C1     C6      1.396   .     S
C1     H7      1.093   .     S
C2     C3      1.396   .     S
C2     H8      1.093   .     S
C3     C4      1.403   .     D
C3     H14     1.091   .     S
C4     C5      1.412   .     S
C4     C10     1.499   .     S
C5     C6      1.400   .     D
C5     C12     1.504   .     S
C6     H9      1.092   .     S
C10    O11     1.209   .     D
C10    O15     1.347   .     S
C12    O13     1.208   .     D
C12    O16     1.341   .     S
O15    C17     1.438   .     S
O16    C30     1.438   .     S
C17    C18     1.524   .     S
C17    H19     1.100   .     S
C17    H20     1.100   .     S
C18    C21     1.532   .     S
C18    H22     1.104   .     S
C18    H23     1.103   .     S
C21    C24     1.529   .     S
C21    H25     1.105   .     S
C21    H26     1.105   .     S
C24    H27     1.101   .     S
C24    H28     1.103   .     S
C24    H29     1.103   .     S
C30    C31     1.524   .     S
C30    H32     1.100   .     S
C30    H33     1.100   .     S
C31    C34     1.532   .     S
C31    H35     1.104   .     S
C31    H36     1.103   .     S
C34    C37     1.529   .     S
C34    H38     1.105   .     S
C34    H39     1.106   .     S
C37    H40     1.102   .     S
C37    H41     1.103   .     S
C37    H42     1.103   .     S
