data_DBP-1
_audit_creation_date              2018-12-18
_audit_creation_method            'Materials Studio'
_symmetry_space_group_name_H-M    'P1'
_symmetry_Int_Tables_number       1
_symmetry_cell_setting            triclinic
loop_
_symmetry_equiv_pos_as_xyz
  x,y,z
_cell_length_a                    15.0000
_cell_length_b                    15.0000
_cell_length_c                    15.0000
_cell_angle_alpha                 90.0000
_cell_angle_beta                  90.0000
_cell_angle_gamma                 90.0000
loop_
_atom_site_label
_atom_site_type_symbol
_atom_site_fract_x
_atom_site_fract_y
_atom_site_fract_z
_atom_site_U_iso_or_equiv
_atom_site_adp_type
_atom_site_occupancy
C1     C     0.44145  -0.68820  -0.73048   0.00000  Uiso   1.00
C2     C     0.35102  -0.66801  -0.72116   0.00000  Uiso   1.00
C3     C     0.32461  -0.59850  -0.66518   0.00000  Uiso   1.00
C4     C     0.38788  -0.54876  -0.61752   0.00000  Uiso   1.00
C5     C     0.47905  -0.57087  -0.62513   0.00000  Uiso   1.00
C6     C     0.50492  -0.63956  -0.68281   0.00000  Uiso   1.00
H7     H     0.46272  -0.74195  -0.77482   0.00000  Uiso   1.00
H8     H     0.30092  -0.70585  -0.75812   0.00000  Uiso   1.00
H9     H     0.57581  -0.65481  -0.68925   0.00000  Uiso   1.00
C10    C     0.35898  -0.46803  -0.56619   0.00000  Uiso   1.00
O11    O     0.40467  -0.40265  -0.55476   0.00000  Uiso   1.00
C12    C     0.55208  -0.52575  -0.57332   0.00000  Uiso   1.00
O13    O     0.62178  -0.50220  -0.60602   0.00000  Uiso   1.00
H14    H     0.25432  -0.58106  -0.65882   0.00000  Uiso   1.00
O15    O     0.27439  -0.47543  -0.53701   0.00000  Uiso   1.00
O16    O     0.53282  -0.52073  -0.48614   0.00000  Uiso   1.00
C17    C     0.23701  -0.40052  -0.49026   0.00000  Uiso   1.00
C18    C     0.25722  -0.40436  -0.39078   0.00000  Uiso   1.00
H19    H     0.16481  -0.40467  -0.50260   0.00000  Uiso   1.00
H20    H     0.26288  -0.33852  -0.51972   0.00000  Uiso   1.00
C21    C     0.21275  -0.32844  -0.33890   0.00000  Uiso   1.00
H22    H     0.23481  -0.46938  -0.36452   0.00000  Uiso   1.00
H23    H     0.33010  -0.40155  -0.38143   0.00000  Uiso   1.00
C24    C     0.23231  -0.33133  -0.23888   0.00000  Uiso   1.00
H25    H     0.23508  -0.26385  -0.36640   0.00000  Uiso   1.00
H26    H     0.13989  -0.33079  -0.34972   0.00000  Uiso   1.00
H27    H     0.19965  -0.27589  -0.20351   0.00000  Uiso   1.00
H28    H     0.20848  -0.39404  -0.20880   0.00000  Uiso   1.00
H29    H     0.30448  -0.32667  -0.22571   0.00000  Uiso   1.00
C30    C     0.59473  -0.47393  -0.42988   0.00000  Uiso   1.00
C31    C     0.66749  -0.53523  -0.39425   0.00000  Uiso   1.00
H32    H     0.55383  -0.44700  -0.37526   0.00000  Uiso   1.00
H33    H     0.62368  -0.41809  -0.46760   0.00000  Uiso   1.00
C34    C     0.72985  -0.48786  -0.32869   0.00000  Uiso   1.00
H35    H     0.63588  -0.59313  -0.36155   0.00000  Uiso   1.00
H36    H     0.70629  -0.56123  -0.45103   0.00000  Uiso   1.00
C37    C     0.80339  -0.54839  -0.29230   0.00000  Uiso   1.00
H38    H     0.76028  -0.42958  -0.36190   0.00000  Uiso   1.00
H39    H     0.69042  -0.46072  -0.27264   0.00000  Uiso   1.00
H40    H     0.84720  -0.51242  -0.24561   0.00000  Uiso   1.00
H41    H     0.77521  -0.60605  -0.25641   0.00000  Uiso   1.00
H42    H     0.84547  -0.57469  -0.34652   0.00000  Uiso   1.00
loop_
_geom_bond_atom_site_label_1
_geom_bond_atom_site_label_2
_geom_bond_distance
_geom_bond_site_symmetry_2
_ccdc_geom_bond_type
C1     C2      1.397   .     D
C1     C6      1.396   .     S
C1     H7      1.093   .     S
C2     C3      1.396   .     S
C2     H8      1.093   .     S
C3     C4      1.403   .     D
C3     H14     1.091   .     S
C4     C5      1.412   .     S
C4     C10     1.499   .     S
C5     C6      1.400   .     D
C5     C12     1.504   .     S
C6     H9      1.092   .     S
C10    O11     1.209   .     D
C10    O15     1.347   .     S
C12    O13     1.208   .     D
C12    O16     1.341   .     S
O15    C17     1.438   .     S
O16    C30     1.438   .     S
C17    C18     1.524   .     S
C17    H19     1.100   .     S
C17    H20     1.100   .     S
C18    C21     1.532   .     S
C18    H22     1.104   .     S
C18    H23     1.103   .     S
C21    C24     1.529   .     S
C21    H25     1.105   .     S
C21    H26     1.105   .     S
C24    H27     1.101   .     S
C24    H28     1.103   .     S
C24    H29     1.103   .     S
C30    C31     1.524   .     S
C30    H32     1.100   .     S
C30    H33     1.100   .     S
C31    C34     1.532   .     S
C31    H35     1.104   .     S
C31    H36     1.103   .     S
C34    C37     1.529   .     S
C34    H38     1.105   .     S
C34    H39     1.106   .     S
C37    H40     1.102   .     S
C37    H41     1.103   .     S
C37    H42     1.103   .     S
