data_DBP-1
_audit_creation_date              2018-12-18
_audit_creation_method            'Materials Studio'
_symmetry_space_group_name_H-M    'P1'
_symmetry_Int_Tables_number       1
_symmetry_cell_setting            triclinic
loop_
_symmetry_equiv_pos_as_xyz
  x,y,z
_cell_length_a                    15.0000
_cell_length_b                    15.0000
_cell_length_c                    15.0000
_cell_angle_alpha                 90.0000
_cell_angle_beta                  90.0000
_cell_angle_gamma                 90.0000
loop_
_atom_site_label
_atom_site_type_symbol
_atom_site_fract_x
_atom_site_fract_y
_atom_site_fract_z
_atom_site_U_iso_or_equiv
_atom_site_adp_type
_atom_site_occupancy
C1     C     0.49199  -0.23139  -0.25611   0.00000  Uiso   1.00
C2     C     0.39987  -0.22803  -0.26932   0.00000  Uiso   1.00
C3     C     0.35598  -0.30037  -0.30811   0.00000  Uiso   1.00
C4     C     0.40340  -0.37651  -0.33462   0.00000  Uiso   1.00
C5     C     0.49683  -0.37876  -0.32346   0.00000  Uiso   1.00
C6     C     0.53993  -0.30657  -0.28289   0.00000  Uiso   1.00
H7     H     0.52672  -0.17540  -0.22502   0.00000  Uiso   1.00
H8     H     0.36190  -0.16939  -0.24869   0.00000  Uiso   1.00
H9     H     0.61199  -0.30997  -0.27322   0.00000  Uiso   1.00
C10    C     0.35375  -0.45724  -0.36633   0.00000  Uiso   1.00
O11    O     0.37885  -0.53309  -0.35585   0.00000  Uiso   1.00
C12    C     0.55503  -0.45443  -0.35413   0.00000  Uiso   1.00
O13    O     0.61403  -0.48608  -0.30943   0.00000  Uiso   1.00
H14    H     0.28384  -0.29913  -0.31709   0.00000  Uiso   1.00
O15    O     0.27573  -0.43547  -0.40508   0.00000  Uiso   1.00
O16    O     0.53748  -0.47778  -0.43865   0.00000  Uiso   1.00
C17    C     0.21953  -0.50728  -0.43475   0.00000  Uiso   1.00
C18    C     0.24264  -0.53655  -0.52925   0.00000  Uiso   1.00
H19    H     0.15132  -0.48047  -0.43147   0.00000  Uiso   1.00
H20    H     0.22556  -0.56340  -0.38790   0.00000  Uiso   1.00
C21    C     0.17950  -0.60876  -0.56433   0.00000  Uiso   1.00
H22    H     0.24071  -0.47770  -0.57344   0.00000  Uiso   1.00
H23    H     0.31180  -0.56148  -0.52993   0.00000  Uiso   1.00
C24    C     0.20172  -0.63888  -0.65917   0.00000  Uiso   1.00
H25    H     0.18144  -0.66685  -0.51907   0.00000  Uiso   1.00
H26    H     0.11017  -0.58385  -0.56212   0.00000  Uiso   1.00
H27    H     0.15536  -0.69087  -0.68240   0.00000  Uiso   1.00
H28    H     0.19786  -0.58283  -0.70659   0.00000  Uiso   1.00
H29    H     0.26977  -0.66638  -0.66312   0.00000  Uiso   1.00
C30    C     0.58467  -0.55320  -0.47432   0.00000  Uiso   1.00
C31    C     0.67298  -0.52619  -0.51665   0.00000  Uiso   1.00
H32    H     0.53920  -0.58195  -0.52418   0.00000  Uiso   1.00
H33    H     0.59521  -0.60220  -0.42078   0.00000  Uiso   1.00
C34    C     0.72069  -0.60481  -0.56108   0.00000  Uiso   1.00
H35    H     0.66036  -0.47318  -0.56618   0.00000  Uiso   1.00
H36    H     0.71611  -0.49714  -0.46468   0.00000  Uiso   1.00
C37    C     0.80954  -0.57892  -0.60387   0.00000  Uiso   1.00
H38    H     0.73205  -0.65771  -0.51109   0.00000  Uiso   1.00
H39    H     0.67660  -0.63454  -0.61211   0.00000  Uiso   1.00
H40    H     0.84229  -0.63682  -0.63499   0.00000  Uiso   1.00
H41    H     0.80022  -0.52795  -0.65603   0.00000  Uiso   1.00
H42    H     0.85597  -0.55119  -0.55409   0.00000  Uiso   1.00
loop_
_geom_bond_atom_site_label_1
_geom_bond_atom_site_label_2
_geom_bond_distance
_geom_bond_site_symmetry_2
_ccdc_geom_bond_type
C1     C2      1.397   .     D
C1     C6      1.396   .     S
C1     H7      1.093   .     S
C2     C3      1.396   .     S
C2     H8      1.093   .     S
C3     C4      1.403   .     D
C3     H14     1.091   .     S
C4     C5      1.412   .     S
C4     C10     1.499   .     S
C5     C6      1.400   .     D
C5     C12     1.504   .     S
C6     H9      1.092   .     S
C10    O11     1.209   .     D
C10    O15     1.347   .     S
C12    O13     1.208   .     D
C12    O16     1.341   .     S
O15    C17     1.438   .     S
O16    C30     1.438   .     S
C17    C18     1.524   .     S
C17    H19     1.100   .     S
C17    H20     1.100   .     S
C18    C21     1.532   .     S
C18    H22     1.104   .     S
C18    H23     1.103   .     S
C21    C24     1.529   .     S
C21    H25     1.105   .     S
C21    H26     1.105   .     S
C24    H27     1.101   .     S
C24    H28     1.103   .     S
C24    H29     1.103   .     S
C30    C31     1.524   .     S
C30    H32     1.100   .     S
C30    H33     1.100   .     S
C31    C34     1.532   .     S
C31    H35     1.104   .     S
C31    H36     1.103   .     S
C34    C37     1.529   .     S
C34    H38     1.105   .     S
C34    H39     1.106   .     S
C37    H40     1.102   .     S
C37    H41     1.103   .     S
C37    H42     1.103   .     S
