data_DBP-1
_audit_creation_date              2018-12-18
_audit_creation_method            'Materials Studio'
_symmetry_space_group_name_H-M    'P1'
_symmetry_Int_Tables_number       1
_symmetry_cell_setting            triclinic
loop_
_symmetry_equiv_pos_as_xyz
  x,y,z
_cell_length_a                    15.0000
_cell_length_b                    15.0000
_cell_length_c                    15.0000
_cell_angle_alpha                 90.0000
_cell_angle_beta                  90.0000
_cell_angle_gamma                 90.0000
loop_
_atom_site_label
_atom_site_type_symbol
_atom_site_fract_x
_atom_site_fract_y
_atom_site_fract_z
_atom_site_U_iso_or_equiv
_atom_site_adp_type
_atom_site_occupancy
C1     C     0.47768  -0.29007  -0.19698   0.00000  Uiso   1.00
C2     C     0.42040  -0.35506  -0.16283   0.00000  Uiso   1.00
C3     C     0.40982  -0.43579  -0.20793   0.00000  Uiso   1.00
C4     C     0.45571  -0.45242  -0.28772   0.00000  Uiso   1.00
C5     C     0.51168  -0.38568  -0.32339   0.00000  Uiso   1.00
C6     C     0.52315  -0.30566  -0.27671   0.00000  Uiso   1.00
H7     H     0.48698  -0.22704  -0.16164   0.00000  Uiso   1.00
H8     H     0.38446  -0.34332  -0.10056   0.00000  Uiso   1.00
H9     H     0.56792  -0.25534  -0.30430   0.00000  Uiso   1.00
C10    C     0.45149  -0.54319  -0.32930   0.00000  Uiso   1.00
O11    O     0.51127  -0.57659  -0.37177   0.00000  Uiso   1.00
C12    C     0.55992  -0.39402  -0.41090   0.00000  Uiso   1.00
O13    O     0.63694  -0.37306  -0.42137   0.00000  Uiso   1.00
H14    H     0.36662  -0.48766  -0.18090   0.00000  Uiso   1.00
O15    O     0.37415  -0.58491  -0.31082   0.00000  Uiso   1.00
O16    O     0.50555  -0.42137  -0.47641   0.00000  Uiso   1.00
C17    C     0.36332  -0.67445  -0.34339   0.00000  Uiso   1.00
C18    C     0.32575  -0.67587  -0.43776   0.00000  Uiso   1.00
H19    H     0.31702  -0.70624  -0.29618   0.00000  Uiso   1.00
H20    H     0.42797  -0.70899  -0.34056   0.00000  Uiso   1.00
C21    C     0.30793  -0.77068  -0.47130   0.00000  Uiso   1.00
H22    H     0.26356  -0.63652  -0.43912   0.00000  Uiso   1.00
H23    H     0.37332  -0.64215  -0.48255   0.00000  Uiso   1.00
C24    C     0.27013  -0.77333  -0.56596   0.00000  Uiso   1.00
H25    H     0.37047  -0.80953  -0.46878   0.00000  Uiso   1.00
H26    H     0.26134  -0.80457  -0.42534   0.00000  Uiso   1.00
H27    H     0.25824  -0.84229  -0.58822   0.00000  Uiso   1.00
H28    H     0.20622  -0.73723  -0.57022   0.00000  Uiso   1.00
H29    H     0.31625  -0.74211  -0.61393   0.00000  Uiso   1.00
C30    C     0.54469  -0.43751  -0.56241   0.00000  Uiso   1.00
C31    C     0.54606  -0.35374  -0.61984   0.00000  Uiso   1.00
H32    H     0.50277  -0.48957  -0.59265   0.00000  Uiso   1.00
H33    H     0.61244  -0.46402  -0.55314   0.00000  Uiso   1.00
C34    C     0.58116  -0.37154  -0.71409   0.00000  Uiso   1.00
H35    H     0.47789  -0.32610  -0.62319   0.00000  Uiso   1.00
H36    H     0.58807  -0.30323  -0.58684   0.00000  Uiso   1.00
C37    C     0.58308  -0.28812  -0.77269   0.00000  Uiso   1.00
H38    H     0.64895  -0.40004  -0.70978   0.00000  Uiso   1.00
H39    H     0.53966  -0.42323  -0.74632   0.00000  Uiso   1.00
H40    H     0.60881  -0.30300  -0.83984   0.00000  Uiso   1.00
H41    H     0.51585  -0.25940  -0.78050   0.00000  Uiso   1.00
H42    H     0.62595  -0.23605  -0.74346   0.00000  Uiso   1.00
loop_
_geom_bond_atom_site_label_1
_geom_bond_atom_site_label_2
_geom_bond_distance
_geom_bond_site_symmetry_2
_ccdc_geom_bond_type
C1     C2      1.397   .     D
C1     C6      1.396   .     S
C1     H7      1.093   .     S
C2     C3      1.396   .     S
C2     H8      1.093   .     S
C3     C4      1.403   .     D
C3     H14     1.091   .     S
C4     C5      1.412   .     S
C4     C10     1.499   .     S
C5     C6      1.400   .     D
C5     C12     1.504   .     S
C6     H9      1.092   .     S
C10    O11     1.209   .     D
C10    O15     1.347   .     S
C12    O13     1.208   .     D
C12    O16     1.341   .     S
O15    C17     1.438   .     S
O16    C30     1.438   .     S
C17    C18     1.524   .     S
C17    H19     1.100   .     S
C17    H20     1.100   .     S
C18    C21     1.532   .     S
C18    H22     1.104   .     S
C18    H23     1.103   .     S
C21    C24     1.529   .     S
C21    H25     1.105   .     S
C21    H26     1.105   .     S
C24    H27     1.101   .     S
C24    H28     1.103   .     S
C24    H29     1.103   .     S
C30    C31     1.524   .     S
C30    H32     1.100   .     S
C30    H33     1.100   .     S
C31    C34     1.532   .     S
C31    H35     1.104   .     S
C31    H36     1.103   .     S
C34    C37     1.529   .     S
C34    H38     1.105   .     S
C34    H39     1.106   .     S
C37    H40     1.102   .     S
C37    H41     1.103   .     S
C37    H42     1.103   .     S
