data_PVDF-model\(2)
_audit_creation_date              2018-12-24
_audit_creation_method            'Materials Studio'
_symmetry_space_group_name_H-M    'P1'
_symmetry_Int_Tables_number       1
_symmetry_cell_setting            triclinic
loop_
_symmetry_equiv_pos_as_xyz
  x,y,z
_cell_length_a                    61.4400
_cell_length_b                    4.2900
_cell_length_c                    4.9100
_cell_angle_alpha                 90.0000
_cell_angle_beta                  90.0000
_cell_angle_gamma                 90.0000
loop_
_atom_site_label
_atom_site_type_symbol
_atom_site_fract_x
_atom_site_fract_y
_atom_site_fract_z
_atom_site_U_iso_or_equiv
_atom_site_adp_type
_atom_site_occupancy
C1     C     0.00000   0.50000   0.13430   0.00000  Uiso   1.00
F2     F     0.02083   0.29600   0.49330   0.00000  Uiso   1.00
F3     F     0.02083   0.70400   0.49330   0.00000  Uiso   1.00
C4     C     0.02083   0.50000   0.30730   0.00000  Uiso   1.00
H5     H     0.00000   0.68800  -0.01470   0.00000  Uiso   1.00
H6     H     0.00000   0.31200  -0.01470   0.00000  Uiso   1.00
C7     C     0.04167   0.50000   0.13430   0.00000  Uiso   1.00
F8     F     0.06250   0.29600   0.49330   0.00000  Uiso   1.00
F9     F     0.06250   0.70400   0.49330   0.00000  Uiso   1.00
C10    C     0.06250   0.50000   0.30730   0.00000  Uiso   1.00
H11    H     0.04167   0.68800  -0.01470   0.00000  Uiso   1.00
H12    H     0.04167   0.31200  -0.01470   0.00000  Uiso   1.00
C13    C     0.08333   0.50000   0.13430   0.00000  Uiso   1.00
F14    F     0.10417   0.29600   0.49330   0.00000  Uiso   1.00
F15    F     0.10417   0.70400   0.49330   0.00000  Uiso   1.00
C16    C     0.10417   0.50000   0.30730   0.00000  Uiso   1.00
H17    H     0.08333   0.68800  -0.01470   0.00000  Uiso   1.00
H18    H     0.08333   0.31200  -0.01470   0.00000  Uiso   1.00
C19    C     0.12500   0.50000   0.13430   0.00000  Uiso   1.00
F20    F     0.14583   0.29600   0.49330   0.00000  Uiso   1.00
F21    F     0.14583   0.70400   0.49330   0.00000  Uiso   1.00
C22    C     0.14583   0.50000   0.30730   0.00000  Uiso   1.00
H23    H     0.12500   0.68800  -0.01470   0.00000  Uiso   1.00
H24    H     0.12500   0.31200  -0.01470   0.00000  Uiso   1.00
C25    C     0.16667   0.50000   0.13430   0.00000  Uiso   1.00
F26    F     0.18750   0.29600   0.49330   0.00000  Uiso   1.00
F27    F     0.18750   0.70400   0.49330   0.00000  Uiso   1.00
C28    C     0.18750   0.50000   0.30730   0.00000  Uiso   1.00
H29    H     0.16667   0.68800  -0.01470   0.00000  Uiso   1.00
H30    H     0.16667   0.31200  -0.01470   0.00000  Uiso   1.00
C31    C     0.20833   0.50000   0.13430   0.00000  Uiso   1.00
F32    F     0.22917   0.29600   0.49330   0.00000  Uiso   1.00
F33    F     0.22917   0.70400   0.49330   0.00000  Uiso   1.00
C34    C     0.22917   0.50000   0.30730   0.00000  Uiso   1.00
H35    H     0.20833   0.68800  -0.01470   0.00000  Uiso   1.00
H36    H     0.20833   0.31200  -0.01470   0.00000  Uiso   1.00
C37    C     0.25000   0.50000   0.13430   0.00000  Uiso   1.00
F38    F     0.27083   0.29600   0.49330   0.00000  Uiso   1.00
F39    F     0.27083   0.70400   0.49330   0.00000  Uiso   1.00
C40    C     0.27083   0.50000   0.30730   0.00000  Uiso   1.00
H41    H     0.25000   0.68800  -0.01470   0.00000  Uiso   1.00
H42    H     0.25000   0.31200  -0.01470   0.00000  Uiso   1.00
C43    C     0.29167   0.50000   0.13430   0.00000  Uiso   1.00
F44    F     0.31250   0.29600   0.49330   0.00000  Uiso   1.00
F45    F     0.31250   0.70400   0.49330   0.00000  Uiso   1.00
C46    C     0.31250   0.50000   0.30730   0.00000  Uiso   1.00
H47    H     0.29167   0.68800  -0.01470   0.00000  Uiso   1.00
H48    H     0.29167   0.31200  -0.01470   0.00000  Uiso   1.00
C49    C     0.33333   0.50000   0.13430   0.00000  Uiso   1.00
F50    F     0.35417   0.29600   0.49330   0.00000  Uiso   1.00
F51    F     0.35417   0.70400   0.49330   0.00000  Uiso   1.00
C52    C     0.35417   0.50000   0.30730   0.00000  Uiso   1.00
H53    H     0.33333   0.68800  -0.01470   0.00000  Uiso   1.00
H54    H     0.33333   0.31200  -0.01470   0.00000  Uiso   1.00
C55    C     0.37500   0.50000   0.13430   0.00000  Uiso   1.00
F56    F     0.39583   0.29600   0.49330   0.00000  Uiso   1.00
F57    F     0.39583   0.70400   0.49330   0.00000  Uiso   1.00
C58    C     0.39583   0.50000   0.30730   0.00000  Uiso   1.00
H59    H     0.37500   0.68800  -0.01470   0.00000  Uiso   1.00
H60    H     0.37500   0.31200  -0.01470   0.00000  Uiso   1.00
C61    C     0.41667   0.50000   0.13430   0.00000  Uiso   1.00
F62    F     0.43750   0.29600   0.49330   0.00000  Uiso   1.00
F63    F     0.43750   0.70400   0.49330   0.00000  Uiso   1.00
C64    C     0.43750   0.50000   0.30730   0.00000  Uiso   1.00
H65    H     0.41667   0.68800  -0.01470   0.00000  Uiso   1.00
H66    H     0.41667   0.31200  -0.01470   0.00000  Uiso   1.00
C67    C     0.45833   0.50000   0.13430   0.00000  Uiso   1.00
F68    F     0.47917   0.29600   0.49330   0.00000  Uiso   1.00
F69    F     0.47917   0.70400   0.49330   0.00000  Uiso   1.00
C70    C     0.47917   0.50000   0.30730   0.00000  Uiso   1.00
H71    H     0.45833   0.68800  -0.01470   0.00000  Uiso   1.00
H72    H     0.45833   0.31200  -0.01470   0.00000  Uiso   1.00
C73    C     0.50000   0.50000   0.13430   0.00000  Uiso   1.00
F74    F     0.52083   0.29600   0.49330   0.00000  Uiso   1.00
F75    F     0.52083   0.70400   0.49330   0.00000  Uiso   1.00
C76    C     0.52083   0.50000   0.30730   0.00000  Uiso   1.00
H77    H     0.50000   0.68800  -0.01470   0.00000  Uiso   1.00
H78    H     0.50000   0.31200  -0.01470   0.00000  Uiso   1.00
C79    C     0.54167   0.50000   0.13430   0.00000  Uiso   1.00
F80    F     0.56250   0.29600   0.49330   0.00000  Uiso   1.00
F81    F     0.56250   0.70400   0.49330   0.00000  Uiso   1.00
C82    C     0.56250   0.50000   0.30730   0.00000  Uiso   1.00
H83    H     0.54167   0.68800  -0.01470   0.00000  Uiso   1.00
H84    H     0.54167   0.31200  -0.01470   0.00000  Uiso   1.00
C85    C     0.58333   0.50000   0.13430   0.00000  Uiso   1.00
F86    F     0.60417   0.29600   0.49330   0.00000  Uiso   1.00
F87    F     0.60417   0.70400   0.49330   0.00000  Uiso   1.00
C88    C     0.60417   0.50000   0.30730   0.00000  Uiso   1.00
H89    H     0.58333   0.68800  -0.01470   0.00000  Uiso   1.00
H90    H     0.58333   0.31200  -0.01470   0.00000  Uiso   1.00
C91    C     0.62500   0.50000   0.13430   0.00000  Uiso   1.00
F92    F     0.64583   0.29600   0.49330   0.00000  Uiso   1.00
F93    F     0.64583   0.70400   0.49330   0.00000  Uiso   1.00
C94    C     0.64583   0.50000   0.30730   0.00000  Uiso   1.00
H95    H     0.62500   0.68800  -0.01470   0.00000  Uiso   1.00
H96    H     0.62500   0.31200  -0.01470   0.00000  Uiso   1.00
C97    C     0.66667   0.50000   0.13430   0.00000  Uiso   1.00
F98    F     0.68750   0.29600   0.49330   0.00000  Uiso   1.00
F99    F     0.68750   0.70400   0.49330   0.00000  Uiso   1.00
C100   C     0.68750   0.50000   0.30730   0.00000  Uiso   1.00
H101   H     0.66667   0.68800  -0.01470   0.00000  Uiso   1.00
H102   H     0.66667   0.31200  -0.01470   0.00000  Uiso   1.00
C103   C     0.70833   0.50000   0.13430   0.00000  Uiso   1.00
F104   F     0.72917   0.29600   0.49330   0.00000  Uiso   1.00
F105   F     0.72917   0.70400   0.49330   0.00000  Uiso   1.00
C106   C     0.72917   0.50000   0.30730   0.00000  Uiso   1.00
H107   H     0.70833   0.68800  -0.01470   0.00000  Uiso   1.00
H108   H     0.70833   0.31200  -0.01470   0.00000  Uiso   1.00
C109   C     0.75000   0.50000   0.13430   0.00000  Uiso   1.00
F110   F     0.77083   0.29600   0.49330   0.00000  Uiso   1.00
F111   F     0.77083   0.70400   0.49330   0.00000  Uiso   1.00
C112   C     0.77083   0.50000   0.30730   0.00000  Uiso   1.00
H113   H     0.75000   0.68800  -0.01470   0.00000  Uiso   1.00
H114   H     0.75000   0.31200  -0.01470   0.00000  Uiso   1.00
C115   C     0.79167   0.50000   0.13430   0.00000  Uiso   1.00
F116   F     0.81250   0.29600   0.49330   0.00000  Uiso   1.00
F117   F     0.81250   0.70400   0.49330   0.00000  Uiso   1.00
C118   C     0.81250   0.50000   0.30730   0.00000  Uiso   1.00
H119   H     0.79167   0.68800  -0.01470   0.00000  Uiso   1.00
H120   H     0.79167   0.31200  -0.01470   0.00000  Uiso   1.00
C121   C     0.83333   0.50000   0.13430   0.00000  Uiso   1.00
F122   F     0.85417   0.29600   0.49330   0.00000  Uiso   1.00
F123   F     0.85417   0.70400   0.49330   0.00000  Uiso   1.00
C124   C     0.85417   0.50000   0.30730   0.00000  Uiso   1.00
H125   H     0.83333   0.68800  -0.01470   0.00000  Uiso   1.00
H126   H     0.83333   0.31200  -0.01470   0.00000  Uiso   1.00
C127   C     0.87500   0.50000   0.13430   0.00000  Uiso   1.00
F128   F     0.89583   0.29600   0.49330   0.00000  Uiso   1.00
F129   F     0.89583   0.70400   0.49330   0.00000  Uiso   1.00
C130   C     0.89583   0.50000   0.30730   0.00000  Uiso   1.00
H131   H     0.87500   0.68800  -0.01470   0.00000  Uiso   1.00
H132   H     0.87500   0.31200  -0.01470   0.00000  Uiso   1.00
C133   C     0.91667   0.50000   0.13430   0.00000  Uiso   1.00
F134   F     0.93750   0.29600   0.49330   0.00000  Uiso   1.00
F135   F     0.93750   0.70400   0.49330   0.00000  Uiso   1.00
C136   C     0.93750   0.50000   0.30730   0.00000  Uiso   1.00
H137   H     0.91667   0.68800  -0.01470   0.00000  Uiso   1.00
H138   H     0.91667   0.31200  -0.01470   0.00000  Uiso   1.00
C139   C     0.95833   0.50000   0.13430   0.00000  Uiso   1.00
F140   F     0.97917   0.29600   0.49330   0.00000  Uiso   1.00
F141   F     0.97917   0.70400   0.49330   0.00000  Uiso   1.00
C142   C     0.97917   0.50000   0.30730   0.00000  Uiso   1.00
H143   H     0.95833   0.68800  -0.01470   0.00000  Uiso   1.00
H144   H     0.95833   0.31200  -0.01470   0.00000  Uiso   1.00
loop_
_geom_bond_atom_site_label_1
_geom_bond_atom_site_label_2
_geom_bond_distance
_geom_bond_site_symmetry_2
_ccdc_geom_bond_type
C1     C4      1.536   .     S
C1     H5      1.089   .     S
C1     H6      1.089   .     S
C1     C142    1.536   1_455 S
F2     C4      1.265   .     S
F3     C4      1.265   .     S
C4     C7      1.536   .     S
C7     C10     1.536   .     S
C7     H11     1.089   .     S
C7     H12     1.089   .     S
F8     C10     1.265   .     S
F9     C10     1.265   .     S
C10    C13     1.536   .     S
C13    C16     1.536   .     S
C13    H17     1.089   .     S
C13    H18     1.089   .     S
F14    C16     1.265   .     S
F15    C16     1.265   .     S
C16    C19     1.536   .     S
C19    C22     1.536   .     S
C19    H23     1.089   .     S
C19    H24     1.089   .     S
F20    C22     1.265   .     S
F21    C22     1.265   .     S
C22    C25     1.536   .     S
C25    C28     1.536   .     S
C25    H29     1.089   .     S
C25    H30     1.089   .     S
F26    C28     1.265   .     S
F27    C28     1.265   .     S
C28    C31     1.536   .     S
C31    C34     1.536   .     S
C31    H35     1.089   .     S
C31    H36     1.089   .     S
F32    C34     1.265   .     S
F33    C34     1.265   .     S
C34    C37     1.536   .     S
C37    C40     1.536   .     S
C37    H41     1.089   .     S
C37    H42     1.089   .     S
F38    C40     1.265   .     S
F39    C40     1.265   .     S
C40    C43     1.536   .     S
C43    C46     1.536   .     S
C43    H47     1.089   .     S
C43    H48     1.089   .     S
F44    C46     1.265   .     S
F45    C46     1.265   .     S
C46    C49     1.536   .     S
C49    C52     1.536   .     S
C49    H53     1.089   .     S
C49    H54     1.089   .     S
F50    C52     1.265   .     S
F51    C52     1.265   .     S
C52    C55     1.536   .     S
C55    C58     1.536   .     S
C55    H59     1.089   .     S
C55    H60     1.089   .     S
F56    C58     1.265   .     S
F57    C58     1.265   .     S
C58    C61     1.536   .     S
C61    C64     1.536   .     S
C61    H65     1.089   .     S
C61    H66     1.089   .     S
F62    C64     1.265   .     S
F63    C64     1.265   .     S
C64    C67     1.536   .     S
C67    C70     1.536   .     S
C67    H71     1.089   .     S
C67    H72     1.089   .     S
F68    C70     1.265   .     S
F69    C70     1.265   .     S
C70    C73     1.536   .     S
C73    C76     1.536   .     S
C73    H77     1.089   .     S
C73    H78     1.089   .     S
F74    C76     1.265   .     S
F75    C76     1.265   .     S
C76    C79     1.536   .     S
C79    C82     1.536   .     S
C79    H83     1.089   .     S
C79    H84     1.089   .     S
F80    C82     1.265   .     S
F81    C82     1.265   .     S
C82    C85     1.536   .     S
C85    C88     1.536   .     S
C85    H89     1.089   .     S
C85    H90     1.089   .     S
F86    C88     1.265   .     S
F87    C88     1.265   .     S
C88    C91     1.536   .     S
C91    C94     1.536   .     S
C91    H95     1.089   .     S
C91    H96     1.089   .     S
F92    C94     1.265   .     S
F93    C94     1.265   .     S
C94    C97     1.536   .     S
C97    C100    1.536   .     S
C97    H101    1.089   .     S
C97    H102    1.089   .     S
F98    C100    1.265   .     S
F99    C100    1.265   .     S
C100   C103    1.536   .     S
C103   C106    1.536   .     S
C103   H107    1.089   .     S
C103   H108    1.089   .     S
F104   C106    1.265   .     S
F105   C106    1.265   .     S
C106   C109    1.536   .     S
C109   C112    1.536   .     S
C109   H113    1.089   .     S
C109   H114    1.089   .     S
F110   C112    1.265   .     S
F111   C112    1.265   .     S
C112   C115    1.536   .     S
C115   C118    1.536   .     S
C115   H119    1.089   .     S
C115   H120    1.089   .     S
F116   C118    1.265   .     S
F117   C118    1.265   .     S
C118   C121    1.536   .     S
C121   C124    1.536   .     S
C121   H125    1.089   .     S
C121   H126    1.089   .     S
F122   C124    1.265   .     S
F123   C124    1.265   .     S
C124   C127    1.536   .     S
C127   C130    1.536   .     S
C127   H131    1.089   .     S
C127   H132    1.089   .     S
F128   C130    1.265   .     S
F129   C130    1.265   .     S
C130   C133    1.536   .     S
C133   C136    1.536   .     S
C133   H137    1.089   .     S
C133   H138    1.089   .     S
F134   C136    1.265   .     S
F135   C136    1.265   .     S
C136   C139    1.536   .     S
C139   C142    1.536   .     S
C139   H143    1.089   .     S
C139   H144    1.089   .     S
F140   C142    1.265   .     S
F141   C142    1.265   .     S
C142   C1      1.536   1_655 S
